/*--------------------------------*- C++ -*----------------------------------*\
  =========                 |
  \\      /  F ield         | OpenFOAM: The Open Source CFD Toolbox
   \\    /   O peration     | Website:  https://openfoam.org
    \\  /    A nd           | Version:  9
     \\/     M anipulation  |
\*---------------------------------------------------------------------------*/
FoamFile
{
    format      ascii;
    class       polyBoundaryMesh;
    location    "constant/polyMesh";
    object      boundary;
}
// * * * * * * * * * * * * * * * * * * * * * * * * * * * * * * * * * * * * * //

3
(
    walls
    {
        type            wall;
        inGroups        List<word> 1(wall);
        nFaces          8000;
        startFace       586000;
    }
    inlet
    {
        type            wall;
        inGroups        List<word> 1(wall);
        nFaces          10000;
        startFace       594000;
    }
    outlet
    {
        type            wall;
        inGroups        List<word> 1(wall);
        nFaces          10000;
        startFace       604000;
    }
)

// ************************************************************************* //
